11433190
  -OEChem-05092402193D

 70 74  0     1  0  0  0  0  0999 V2000
   -4.9321    1.4349    4.1409 Cl  0  0  0  0  0  0  0  0  0  0  0  0
   -7.1212   -2.4945   -1.7455 Cl  0  0  0  0  0  0  0  0  0  0  0  0
    1.6383    0.8660    1.7543 O   0  0  0  0  0  0  0  0  0  0  0  0
    3.1008   -0.2654   -0.9720 O   0  0  0  0  0  0  0  0  0  0  0  0
    1.8242    4.3558   -2.6254 O   0  0  0  0  0  0  0  0  0  0  0  0
    5.0699   -3.5802    1.8272 O   0  0  0  0  0  0  0  0  0  0  0  0
    0.2328    0.3067    0.0175 N   0  0  0  0  0  0  0  0  0  0  0  0
   -0.4305   -1.7126   -0.8593 N   0  0  0  0  0  0  0  0  0  0  0  0
    0.8678    2.5731    0.3886 N   0  0  0  0  0  0  0  0  0  0  0  0
    2.4997    4.6402   -0.4596 N   0  0  0  0  0  0  0  0  0  0  0  0
   -1.1220    0.5670   -0.4566 C   0  0  1  0  0  0  0  0  0  0  0  0
   -1.3951   -0.6766   -1.3326 C   0  0  2  0  0  0  0  0  0  0  0  0
    0.4766   -1.0584   -0.1967 C   0  0  0  0  0  0  0  0  0  0  0  0
   -2.0840    0.7860    0.7040 C   0  0  0  0  0  0  0  0  0  0  0  0
   -2.8322   -1.1327   -1.4361 C   0  0  0  0  0  0  0  0  0  0  0  0
    0.9850    1.2286    0.7696 C   0  0  0  0  0  0  0  0  0  0  0  0
    1.6855   -1.7066    0.3223 C   0  0  0  0  0  0  0  0  0  0  0  0
    1.1944    3.6264    1.3398 C   0  0  0  0  0  0  0  0  0  0  0  0
    0.6892    3.0276   -0.9878 C   0  0  0  0  0  0  0  0  0  0  0  0
   -1.8108    0.2252    1.9516 C   0  0  0  0  0  0  0  0  0  0  0  0
   -3.2378    1.5477    0.5192 C   0  0  0  0  0  0  0  0  0  0  0  0
    2.5180    4.2343    0.9322 C   0  0  0  0  0  0  0  0  0  0  0  0
   -3.6521   -0.6307   -2.4468 C   0  0  0  0  0  0  0  0  0  0  0  0
   -3.3385   -2.0560   -0.5213 C   0  0  0  0  0  0  0  0  0  0  0  0
    2.9528   -1.2878   -0.0830 C   0  0  0  0  0  0  0  0  0  0  0  0
    1.7401    4.0350   -1.4377 C   0  0  0  0  0  0  0  0  0  0  0  0
    1.5555   -2.7547    1.2334 C   0  0  0  0  0  0  0  0  0  0  0  0
   -2.6915    0.4259    3.0144 C   0  0  0  0  0  0  0  0  0  0  0  0
   -4.1186    1.7483    1.5821 C   0  0  0  0  0  0  0  0  0  0  0  0
   -4.9784   -1.0518   -2.5425 C   0  0  0  0  0  0  0  0  0  0  0  0
   -4.6648   -2.4771   -0.6171 C   0  0  0  0  0  0  0  0  0  0  0  0
   -3.8454    1.1875    2.8297 C   0  0  0  0  0  0  0  0  0  0  0  0
    4.0902   -1.9173    0.4228 C   0  0  0  0  0  0  0  0  0  0  0  0
    2.6929   -3.3842    1.7392 C   0  0  0  0  0  0  0  0  0  0  0  0
   -5.4847   -1.9750   -1.6276 C   0  0  0  0  0  0  0  0  0  0  0  0
    3.9602   -2.9655    1.3338 C   0  0  0  0  0  0  0  0  0  0  0  0
    3.7742   -0.5618   -2.1935 C   0  0  0  0  0  0  0  0  0  0  0  0
    5.0293    0.2917   -2.2933 C   0  0  0  0  0  0  0  0  0  0  0  0
    2.8281   -0.3169   -3.3590 C   0  0  0  0  0  0  0  0  0  0  0  0
    6.3342   -3.1019    1.3705 C   0  0  0  0  0  0  0  0  0  0  0  0
   -1.1648    1.4553   -1.0870 H   0  0  0  0  0  0  0  0  0  0  0  0
   -1.0581   -0.4471   -2.3555 H   0  0  0  0  0  0  0  0  0  0  0  0
    0.3883    4.3686    1.3050 H   0  0  0  0  0  0  0  0  0  0  0  0
    1.2469    3.2307    2.3590 H   0  0  0  0  0  0  0  0  0  0  0  0
   -0.2893    3.5138   -1.0595 H   0  0  0  0  0  0  0  0  0  0  0  0
    0.7518    2.1834   -1.6808 H   0  0  0  0  0  0  0  0  0  0  0  0
   -0.9411   -0.3965    2.1366 H   0  0  0  0  0  0  0  0  0  0  0  0
   -3.4609    1.9924   -0.4468 H   0  0  0  0  0  0  0  0  0  0  0  0
    2.7535    5.1137    1.5390 H   0  0  0  0  0  0  0  0  0  0  0  0
    3.3331    3.5102    1.0405 H   0  0  0  0  0  0  0  0  0  0  0  0
   -3.2703    0.0916   -3.1633 H   0  0  0  0  0  0  0  0  0  0  0  0
   -2.7187   -2.4567    0.2762 H   0  0  0  0  0  0  0  0  0  0  0  0
    0.5740   -3.0888    1.5604 H   0  0  0  0  0  0  0  0  0  0  0  0
    3.1802    5.3332   -0.7556 H   0  0  0  0  0  0  0  0  0  0  0  0
   -2.4692   -0.0220    3.9796 H   0  0  0  0  0  0  0  0  0  0  0  0
   -5.0137    2.3441    1.4235 H   0  0  0  0  0  0  0  0  0  0  0  0
   -5.6060   -0.6512   -3.3344 H   0  0  0  0  0  0  0  0  0  0  0  0
   -5.0462   -3.1958    0.1036 H   0  0  0  0  0  0  0  0  0  0  0  0
    5.0530   -1.5472    0.0907 H   0  0  0  0  0  0  0  0  0  0  0  0
    2.5855   -4.1996    2.4492 H   0  0  0  0  0  0  0  0  0  0  0  0
    4.0735   -1.6179   -2.2376 H   0  0  0  0  0  0  0  0  0  0  0  0
    4.7777    1.3576   -2.2546 H   0  0  0  0  0  0  0  0  0  0  0  0
    5.5706    0.0950   -3.2237 H   0  0  0  0  0  0  0  0  0  0  0  0
    5.7038    0.1003   -1.4530 H   0  0  0  0  0  0  0  0  0  0  0  0
    2.4773    0.7211   -3.3653 H   0  0  0  0  0  0  0  0  0  0  0  0
    3.3104   -0.5305   -4.3176 H   0  0  0  0  0  0  0  0  0  0  0  0
    1.9373   -0.9479   -3.2676 H   0  0  0  0  0  0  0  0  0  0  0  0
    6.4545   -3.2473    0.2915 H   0  0  0  0  0  0  0  0  0  0  0  0
    6.5044   -2.0628    1.6721 H   0  0  0  0  0  0  0  0  0  0  0  0
    7.1042   -3.7063    1.8611 H   0  0  0  0  0  0  0  0  0  0  0  0
  1 32  1  0  0  0  0
  2 35  1  0  0  0  0
  3 16  2  0  0  0  0
  4 25  1  0  0  0  0
  4 37  1  0  0  0  0
  5 26  2  0  0  0  0
  6 36  1  0  0  0  0
  6 40  1  0  0  0  0
  7 11  1  0  0  0  0
  7 13  1  0  0  0  0
  7 16  1  0  0  0  0
  8 12  1  0  0  0  0
  8 13  2  0  0  0  0
  9 16  1  0  0  0  0
  9 18  1  0  0  0  0
  9 19  1  0  0  0  0
 10 22  1  0  0  0  0
 10 26  1  0  0  0  0
 10 54  1  0  0  0  0
 11 12  1  0  0  0  0
 11 14  1  0  0  0  0
 11 41  1  0  0  0  0
 12 15  1  0  0  0  0
 12 42  1  0  0  0  0
 13 17  1  0  0  0  0
 14 20  2  0  0  0  0
 14 21  1  0  0  0  0
 15 23  2  0  0  0  0
 15 24  1  0  0  0  0
 17 25  2  0  0  0  0
 17 27  1  0  0  0  0
 18 22  1  0  0  0  0
 18 43  1  0  0  0  0
 18 44  1  0  0  0  0
 19 26  1  0  0  0  0
 19 45  1  0  0  0  0
 19 46  1  0  0  0  0
 20 28  1  0  0  0  0
 20 47  1  0  0  0  0
 21 29  2  0  0  0  0
 21 48  1  0  0  0  0
 22 49  1  0  0  0  0
 22 50  1  0  0  0  0
 23 30  1  0  0  0  0
 23 51  1  0  0  0  0
 24 31  2  0  0  0  0
 24 52  1  0  0  0  0
 25 33  1  0  0  0  0
 27 34  2  0  0  0  0
 27 53  1  0  0  0  0
 28 32  2  0  0  0  0
 28 55  1  0  0  0  0
 29 32  1  0  0  0  0
 29 56  1  0  0  0  0
 30 35  2  0  0  0  0
 30 57  1  0  0  0  0
 31 35  1  0  0  0  0
 31 58  1  0  0  0  0
 33 36  2  0  0  0  0
 33 59  1  0  0  0  0
 34 36  1  0  0  0  0
 34 60  1  0  0  0  0
 37 38  1  0  0  0  0
 37 39  1  0  0  0  0
 37 61  1  0  0  0  0
 38 62  1  0  0  0  0
 38 63  1  0  0  0  0
 38 64  1  0  0  0  0
 39 65  1  0  0  0  0
 39 66  1  0  0  0  0
 39 67  1  0  0  0  0
 40 68  1  0  0  0  0
 40 69  1  0  0  0  0
 40 70  1  0  0  0  0
M  END
> <PUBCHEM_COMPOUND_CID>
11433190

> <PUBCHEM_CONFORMER_RMSD>
1

> <PUBCHEM_CONFORMER_DIVERSEORDER>
1
27
11
26
22
23
4
21
13
24
17
19
10
5
29
9
15
31
25
12
20
28
30
16
2
32
18
14
6
7
3
8

> <PUBCHEM_MMFF94_PARTIAL_CHARGES>
50
1 -0.18
10 -0.73
11 0.44
12 0.39
13 0.42
14 -0.14
15 -0.14
16 0.69
17 0.09
18 0.3
19 0.36
2 -0.18
20 -0.15
21 -0.15
22 0.3
23 -0.15
24 -0.15
25 0.08
26 0.57
27 -0.15
28 -0.15
29 -0.15
3 -0.57
30 -0.15
31 -0.15
32 0.18
33 -0.15
34 -0.15
35 0.18
36 0.08
37 0.28
4 -0.36
40 0.28
47 0.15
48 0.15
5 -0.57
51 0.15
52 0.15
53 0.15
54 0.37
55 0.15
56 0.15
57 0.15
58 0.15
59 0.15
6 -0.36
60 0.15
7 -0.42
8 -0.7
9 -0.66

> <PUBCHEM_EFFECTIVE_ROTOR_COUNT>
9.6

> <PUBCHEM_PHARMACOPHORE_FEATURES>
11
1 10 donor
1 3 acceptor
1 4 acceptor
1 5 acceptor
1 6 acceptor
3 37 38 39 hydrophobe
5 7 8 11 12 13 rings
6 14 20 21 28 29 32 rings
6 15 23 24 30 31 35 rings
6 17 25 27 33 34 36 rings
6 9 10 18 19 22 26 rings

> <PUBCHEM_HEAVY_ATOM_COUNT>
40

> <PUBCHEM_ATOM_DEF_STEREO_COUNT>
2

> <PUBCHEM_ATOM_UDEF_STEREO_COUNT>
0

> <PUBCHEM_BOND_DEF_STEREO_COUNT>
0

> <PUBCHEM_BOND_UDEF_STEREO_COUNT>
0

> <PUBCHEM_ISOTOPIC_ATOM_COUNT>
0

> <PUBCHEM_COMPONENT_COUNT>
1

> <PUBCHEM_CACTVS_TAUTO_COUNT>
2

> <PUBCHEM_CONFORMER_ID>
00AE74E600000001

> <PUBCHEM_MMFF94_ENERGY>
147.123

> <PUBCHEM_FEATURE_SELFOVERLAP>
55.824

> <PUBCHEM_SHAPE_FINGERPRINT>
10675989 125 17554602178017658121
10721379 63 18268421502799160973
11115154 58 17826768388333202005
11377469 6 18128796630286185583
11763715 3 18265892450510541774
12160290 23 17544767724742411812
12633046 712 17749120971563341795
12788726 201 17393868575518707424
133893 2 18337674221136569941
13540713 5 18202009858547691201
14068700 675 17987209236759541111
14415360 78 17682422564756329228
14725015 67 16108928155524714446
14955137 171 17911840965427324632
15297060 5 16477724671055870928
15324884 4 17263589616466530689
16090146 7 17615132512844187560
17980427 26 18118994557012172321
18365409 1 17344903020084375145
20600515 1 17844804785459607312
21033648 29 12906269337814158445
2132832 1 18131337623274730659
23559900 14 17895457216167350727
244849 19 17530682147920035825
25147074 1 18130796697961205793
3380486 145 18051126995676312299
4015057 19 17821730507337454171
44880168 125 17770234755686393286
469060 322 18267856186234584531
5080951 261 17125597703056555242
6086070 43 18411411787637821165
6669772 16 18048023366741316420

> <PUBCHEM_SHAPE_MULTIPOLES>
783.52
12.14
5.52
3.56
6.47
5.05
-0.71
-11.25
0.66
-5.26
-0.31
1.97
0.66
-7.22

> <PUBCHEM_SHAPE_SELFOVERLAP>
1680.743

> <PUBCHEM_SHAPE_VOLUME>
434.4

> <PUBCHEM_COORDINATE_TYPE>
2
5
10

$$$$
